    10
 geometry
 C                    10.07342542     8.58187654     9.53951937
 C                    10.05722965     9.84839909    10.44705776
 C                    10.02390395    11.16994943     9.65116574
 F                    11.08304547     8.65689104     8.65597063
 F                    10.23545147     7.48603479    10.29425738
 F                     8.91797805     8.48155014     8.86506537
 F                     8.96577751     9.78506450    11.24580842
 F                    11.17730861     9.83604454    11.20977784
 O                    11.06267346    11.80504504     9.35078775
 O                     8.96320442    11.69571888     9.24036373
